# generated using pymatgen
data_Au2Se3O10
_symmetry_space_group_name_H-M   'P 1'
_cell_length_a   9.11222996
_cell_length_b   9.11224670
_cell_length_c   50.00000000
_cell_angle_alpha   90.00000000
_cell_angle_beta   90.00000000
_cell_angle_gamma   39.54461879
_symmetry_Int_Tables_number   1
_chemical_formula_structural   Au2Se3O10
_chemical_formula_sum   'Au2 Se3 O10'
_cell_volume   2643.26447795
_cell_formula_units_Z   1
loop_
 _symmetry_equiv_pos_site_id
 _symmetry_equiv_pos_as_xyz
  1  'x, y, z'
loop_
 _atom_site_type_symbol
 _atom_site_label
 _atom_site_symmetry_multiplicity
 _atom_site_fract_x
 _atom_site_fract_y
 _atom_site_fract_z
 _atom_site_occupancy
  Au  Au0  1  0.68447625  0.63030276  0.50136443  1.0
  Au  Au1  1  0.36969862  0.31552256  0.50136444  1.0
  Se  Se2  1  0.34864709  0.65135262  0.47671087  1.0
  Se  Se3  1  0.89856707  0.77265579  0.52294597  1.0
  Se  Se4  1  0.22734315  0.10143449  0.52294601  1.0
  O  O5  1  0.38969145  0.96704350  0.49311357  1.0
  O  O6  1  0.03295781  0.61030761  0.49311354  1.0
  O  O7  1  0.95153623  0.29265666  0.51112775  1.0
  O  O8  1  0.70734541  0.04846196  0.51112771  1.0
  O  O9  1  0.74462547  0.73245229  0.53096027  1.0
  O  O10  1  0.26754866  0.25537409  0.53096027  1.0
  O  O11  1  0.26502054  0.73497895  0.50793609  1.0
  O  O12  1  0.61149070  0.54426553  0.47238103  1.0
  O  O13  1  0.45573629  0.38850844  0.47238123  1.0
  O  O14  1  0.18530031  0.81469771  0.45156681  1.0
