# generated using pymatgen
data_PdSO4
_symmetry_space_group_name_H-M   'P 1'
_cell_length_a   6.20457868
_cell_length_b   6.20454707
_cell_length_c   50.00000000
_cell_angle_alpha   90.00000000
_cell_angle_beta   90.00000000
_cell_angle_gamma   89.99740314
_symmetry_Int_Tables_number   1
_chemical_formula_structural   PdSO4
_chemical_formula_sum   'Pd2 S2 O8'
_cell_volume   1924.83002150
_cell_formula_units_Z   2
loop_
 _symmetry_equiv_pos_site_id
 _symmetry_equiv_pos_as_xyz
  1  'x, y, z'
loop_
 _atom_site_type_symbol
 _atom_site_label
 _atom_site_symmetry_multiplicity
 _atom_site_fract_x
 _atom_site_fract_y
 _atom_site_fract_z
 _atom_site_occupancy
  Pd  Pd0  1  0.41735593  0.07775514  0.48509264  1.0
  Pd  Pd5  1  0.91736643  0.57776375  0.51490649  1.0
  S  S6  1  0.91736218  0.07776275  0.50000060  1.0
  S  S7  1  0.41737264  0.57776251  0.49999948  1.0
  O  O1  1  0.35246811  0.75776988  0.48159717  1.0
  O  O2  1  0.48224066  0.39775084  0.48159687  1.0
  O  O3  1  0.09735668  0.14265482  0.48159569  1.0
  O  O4  1  0.73735566  0.01286429  0.48160008  1.0
  O  O8  1  0.98222788  0.89776116  0.51840583  1.0
  O  O9  1  0.85247547  0.25777648  0.51840239  1.0
  O  O10  1  0.23736178  0.51287388  0.51840012  1.0
  O  O11  1  0.59736963  0.64267135  0.51840265  1.0
